&NUMERICS
time_flux = 1  ! length of flux corrections run [yrs]
time_ctrl = 1  ! length of control run [yrs
time_scnr = 5  ! length of scenariorun [yrs
/
&PHYSICS
log_exp = 5 ! complete GREB model; 2xCO2 forcing
/
